@<TRIPOS>MOLECULE
1bjv_ligand
   45    47     1     0     0
SMALL
bcc


@<TRIPOS>ATOM
      1 N1          -2.8490    13.8230    13.8080 nh         1 GP8      -0.479100
      2 N2          -1.9970    12.0070    14.9800 nh         1 GP8      -0.463200
      3 C1          -2.3230    13.3130    14.9280 ce         1 GP8       0.533400
      4 C2          -1.8640    14.1660    15.9640 ca         1 GP8      -0.323900
      5 C3          -1.8980    15.5640    15.8270 ca         1 GP8      -0.038000
      6 C4          -1.5020    16.4100    16.8650 ca         1 GP8      -0.187500
      7 C5          -1.0560    15.8700    18.0800 ca         1 GP8       0.182600
      8 C6          -1.0040    14.4810    18.2520 ca         1 GP8      -0.187500
      9 C7          -1.4040    13.6530    17.1990 ca         1 GP8      -0.038000
     10 N3          -0.6740    16.6870    19.0840 n          1 GP8      -0.472100
     11 C8           0.2590    17.6460    19.0030 c          1 GP8       0.779100
     12 O1           0.8290    17.9300    17.9320 o          1 GP8      -0.593100
     13 N4           0.5700    18.2810    20.1300 n          1 GP8      -0.440100
     14 C9           1.4490    19.2740    20.2580 ca         1 GP8      -0.003400
     15 C10          1.0310    20.4010    20.9650 ca         1 GP8      -0.111500
     16 C11          1.9630    21.4130    21.1970 ca         1 GP8      -0.150500
     17 C12          3.2830    21.2900    20.7240 ca         1 GP8       0.125100
     18 C13          3.6670    20.1370    20.0250 ca         1 GP8      -0.150500
     19 C14          2.7440    19.1120    19.7820 ca         1 GP8      -0.111500
     20 O2           4.2000    22.2810    20.9260 os         1 GP8      -0.242200
     21 C15          4.7560    22.7430    22.0830 ca         1 GP8       0.080100
     22 C16          5.7950    23.6730    21.9850 ca         1 GP8      -0.143000
     23 C17          6.3920    24.1850    23.1360 ca         1 GP8      -0.113000
     24 C18          5.9560    23.7720    24.3940 ca         1 GP8      -0.132000
     25 C19          4.9230    22.8390    24.5010 ca         1 GP8      -0.113000
     26 C20          4.3200    22.3230    23.3510 ca         1 GP8      -0.143000
     27 H1          -3.1790    13.1950    13.0620 hn         1 GP8       0.322950
     28 H2          -2.9230    14.8440    13.6920 hn         1 GP8       0.322950
     29 H3          -1.5920    11.6110    15.8400 hn         1 GP8       0.322950
     30 H4          -2.1530    11.4040    14.1590 hn         1 GP8       0.322950
     31 H5          -2.2400    15.9960    14.8930 ha         1 GP8       0.145500
     32 H6          -1.5390    17.4850    16.7320 ha         1 GP8       0.182500
     33 H7          -0.6590    14.0550    19.1870 ha         1 GP8       0.182500
     34 H8          -1.3600    12.5780    17.3340 ha         1 GP8       0.145500
     35 H9          -1.1270    16.5660    19.9670 hn         1 GP8       0.329500
     36 H10          0.0990    17.9850    20.9610 hn         1 GP8       0.317500
     37 H11          0.0120    20.4880    21.3240 ha         1 GP8       0.149000
     38 H12          1.6680    22.3000    21.7450 ha         1 GP8       0.161000
     39 H13          4.6860    20.0380    19.6700 ha         1 GP8       0.161000
     40 H14          3.0310    18.2190    19.2390 ha         1 GP8       0.149000
     41 H15          6.1380    23.9980    21.0090 ha         1 GP8       0.149000
     42 H16          7.1970    24.9060    23.0530 ha         1 GP8       0.141000
     43 H17          6.4180    24.1750    25.2880 ha         1 GP8       0.141000
     44 H18          4.5880    22.5140    25.4790 ha         1 GP8       0.141000
     45 H19          3.5170    21.6000    23.4370 ha         1 GP8       0.149000
@<TRIPOS>BOND
     1     1     3 2   
     2     3     4 1   
     3     4     5 ar  
     4     4     9 ar  
     5     5     6 ar  
     6     6     7 ar  
     7     7     8 ar  
     8     7    10 1   
     9     8     9 ar  
    10    10    11 1   
    11    11    12 2   
    12    11    13 1   
    13    13    14 1   
    14    14    15 ar  
    15    14    19 ar  
    16    15    16 ar  
    17    16    17 ar  
    18    17    18 ar  
    19    17    20 1   
    20    18    19 ar  
    21    20    21 1   
    22    21    22 ar  
    23    21    26 ar  
    24    22    23 ar  
    25    23    24 ar  
    26    24    25 ar  
    27    25    26 ar  
    28     3     2 1   
    29     1    27 1   
    30     1    28 1   
    31     2    29 1   
    32     2    30 1   
    33     5    31 1   
    34     6    32 1   
    35     8    33 1   
    36     9    34 1   
    37    10    35 1   
    38    13    36 1   
    39    15    37 1   
    40    16    38 1   
    41    18    39 1   
    42    19    40 1   
    43    22    41 1   
    44    23    42 1   
    45    24    43 1   
    46    25    44 1   
    47    26    45 1   
@<TRIPOS>SUBSTRUCTURE
     1 GP8         1 TEMP              0 ****  ****    0 ROOT
